[General]
network = N1
##-- record-event log= true
sim-time-limit = 100s
warmup-period = 100s

## parametric simulation scenarios

[Config C1]
description= "Parametric runs:"




 
