[General]
network = N1
##-- record-event log= true
sim-time-limit = 100s
warmup-period = 100s

**.sink.randVal = exponential(100)

num-rngs= 10
**.source.rng-0 = 0
**.fifo.rng-0 = 1

## parametric simulation scenarios

[Config C1]
description= "Parametric runs:"
**.source.sendIaTime = exponential(4s)
**.source.initialBurst = 5
**.sink.sink_budget = uniform(100, 200)
**.sink.sink_receive_cost = uniform(2,4)
**.source.src_budget = uniform(100, 200)
**.source.x_init = 0.0
**.source.y_init = 0.0
**.source.v_x = 0.0
**.source.v_y = 0.1
**.source.send_cost = uniform(2,4)
**.sink.x_init = 1.0
**.sink.y_init = 1.0
**.sink.v_x = 1.0
**.sink.v_y = 0.0
**.wireless.transmission_range = 5
**.wireless.src_x_init = 0.0
**.wireless.src_y_init = 0.0
**.wireless.sink_x_init = 1.0
**.wireless.sink_y_init = 1.0
**.result-recording-modes = all,-vector,+histogram



 
